
  EPA STORM WATER MANAGEMENT MODEL - VERSION 5.1 (Build 5.2.0.dev6)
  --------------------------------------------------------------

  'UK EA 2D test case #8b' 
  
  
  *************
  Element Count
  *************
  Number of rain gages ...... 0
  Number of subcatchments ... 0
  Number of nodes ........... 8
  Number of links ........... 7
  Number of pollutants ...... 0
  Number of land uses ....... 0
  
  
  ************
  Node Summary
  ************
                                           Invert      Max.    Ponded    External
  Name                 Type                 Elev.     Depth      Area    Inflow  
  -------------------------------------------------------------------------------
  J0                   JUNCTION             39.17      2.00       0.0    Yes
  J1                   JUNCTION             29.46      2.00       1.0
  J2                   JUNCTION             27.70      2.00       0.0
  J3                   JUNCTION             26.37      2.00       0.0
  J4                   JUNCTION             25.70      2.00       0.0
  J5                   JUNCTION             24.64      2.00       0.0
  J6                   JUNCTION             24.29      2.00       0.0
  O7                   OUTFALL              23.49      1.40       0.0
  
  
  ************
  Link Summary
  ************
  Name             From Node        To Node          Type            Length    %Slope Roughness
  ---------------------------------------------------------------------------------------------
  C0               J0               J1               CONDUIT          467.0    2.0797    0.0170
  C1               J1               J2               CONDUIT          104.0    1.6926    0.0170
  C2               J2               J3               CONDUIT          106.0    1.2548    0.0170
  C3               J3               J4               CONDUIT          200.0    0.3350    0.0170
  C4               J4               J5               CONDUIT          114.0    0.9299    0.0170
  C5               J5               J6               CONDUIT          154.0    0.2273    0.0170
  C6               J6               O7               CONDUIT          195.0    0.4103    0.0170
  
  
  *********************
  Cross Section Summary
  *********************
                                        Full     Full     Hyd.     Max.   No. of     Full
  Conduit          Shape               Depth     Area     Rad.    Width  Barrels     Flow
  ---------------------------------------------------------------------------------------
  C0               CIRCULAR             1.40     1.54     0.35     1.40        1     6.49
  C1               CIRCULAR             1.40     1.54     0.35     1.40        1     5.85
  C2               CIRCULAR             1.40     1.54     0.35     1.40        1     5.04
  C3               CIRCULAR             1.40     1.54     0.35     1.40        1     2.60
  C4               CIRCULAR             1.40     1.54     0.35     1.40        1     4.34
  C5               CIRCULAR             1.40     1.54     0.35     1.40        1     2.14
  C6               CIRCULAR             1.40     1.54     0.35     1.40        1     2.88
  
  
  
  *********************************************************
  NOTE: The summary statistics displayed in this report are
  based on results found at every computational time step,  
  not just on results from each reporting time step.
  *********************************************************
  
  ****************
  Analysis Options
  ****************
  Flow Units ............... CMS
  Process Models:
    Rainfall/Runoff ........ NO
    RDII ................... NO
    Snowmelt ............... NO
    Groundwater ............ NO
    Flow Routing ........... YES
    Ponding Allowed ........ YES
    Water Quality .......... NO
  Flow Routing Method ...... DYNWAVE
  Surcharge Method ......... EXTRAN
  Starting Date ............ 01/01/2007 00:00:00
  Ending Date .............. 01/01/2007 05:00:00
  Antecedent Dry Days ...... 0.0
  Report Time Step ......... 00:00:30
  Routing Time Step ........ 2.00 sec
  Variable Time Step ....... YES
  Maximum Trials ........... 8
  Number of Threads ........ 1
  Head Tolerance ........... 0.001524 m
  
  
  *********************
  Control Actions Taken
  *********************

  
  **************************        Volume        Volume
  Flow Routing Continuity        hectare-m      10^6 ltr
  **************************     ---------     ---------
  Dry Weather Inflow .......         0.000         0.000
  Wet Weather Inflow .......         0.000         0.000
  Groundwater Inflow .......         0.000         0.000
  RDII Inflow ..............         0.000         0.000
  External Inflow ..........         5.147        51.474
  External Outflow .........         5.079        50.790
  Flooding Loss ............         0.000         0.000
  Evaporation Loss .........         0.000         0.000
  Exfiltration Loss ........         0.000         0.000
  Initial Stored Volume ....         0.000         0.000
  Final Stored Volume ......         0.091         0.908
  Continuity Error (%) .....        -0.436
  
  
  ***************************
  Time-Step Critical Elements
  ***************************
  None
  
  
  ********************************
  Highest Flow Instability Indexes
  ********************************
  Link C2 (2)
  Link C1 (1)
  
  
  *************************
  Routing Time Step Summary
  *************************
  Minimum Time Step           :     0.29 sec
  Average Time Step           :     2.00 sec
  Maximum Time Step           :     2.00 sec
  Percent in Steady State     :     0.00
  Average Iterations per Step :     3.12
  Percent Not Converging      :     4.34
  
  
  ******************
  Node Depth Summary
  ******************
  
  ---------------------------------------------------------------------------------
                                 Average  Maximum  Maximum  Time of Max    Reported
                                   Depth    Depth      HGL   Occurrence   Max Depth
  Node                 Type       Meters   Meters   Meters  days hr:min      Meters
  ---------------------------------------------------------------------------------
  J0                   JUNCTION     1.51    14.50    53.67     0  01:45        0.00
  J1                   JUNCTION     2.26    10.45    39.91     0  02:09        0.00
  J2                   JUNCTION     2.44    10.40    38.10     0  02:09        0.00
  J3                   JUNCTION     2.68     9.88    36.25     0  02:09        0.00
  J4                   JUNCTION     1.92     7.06    32.76     0  02:09        0.00
  J5                   JUNCTION     2.05     6.13    30.77     0  02:09        0.00
  J6                   JUNCTION     1.45     3.79    28.08     0  02:09        0.00
  O7                   OUTFALL      0.84     1.25    24.74     0  02:09        0.00
  
  
  *******************
  Node Inflow Summary
  *******************
  
  -------------------------------------------------------------------------------------------------
                                  Maximum  Maximum                  Lateral       Total        Flow
                                  Lateral    Total  Time of Max      Inflow      Inflow     Balance
                                   Inflow   Inflow   Occurrence      Volume      Volume       Error
  Node                 Type           CMS      CMS  days hr:min    10^6 ltr    10^6 ltr     Percent
  -------------------------------------------------------------------------------------------------
  J0                   JUNCTION     6.281    6.281     0  01:58        51.5        51.5       0.192
  J1                   JUNCTION     0.000    6.281     0  01:58           0        51.4      -0.010
  J2                   JUNCTION     0.000    5.941     0  02:09           0        51.4       0.109
  J3                   JUNCTION     0.000    5.941     0  02:09           0        51.3       0.286
  J4                   JUNCTION     0.000    5.941     0  02:09           0        51.2       0.188
  J5                   JUNCTION     0.000    5.941     0  02:09           0        51.1       0.273
  J6                   JUNCTION     0.000    5.941     0  02:09           0        50.9       0.302
  O7                   OUTFALL      0.000    5.941     0  02:09           0        50.8       0.000
  
  
  **********************
  Node Surcharge Summary
  **********************
  
  Surcharging occurs when water rises above the top of the highest conduit.
  ---------------------------------------------------------------------
                                               Max. Height   Min. Depth
                                   Hours       Above Crown    Below Rim
  Node                 Type      Surcharged         Meters       Meters
  ---------------------------------------------------------------------
  J0                   JUNCTION        0.77         13.105        0.000
  J1                   JUNCTION        1.36          9.050        0.000
  J2                   JUNCTION        1.52          8.996        0.000
  J3                   JUNCTION        1.71          8.477        0.000
  J4                   JUNCTION        1.58          5.658        0.000
  J5                   JUNCTION        1.80          4.730        0.000
  J6                   JUNCTION        1.57          2.393        0.000
  
  
  *********************
  Node Flooding Summary
  *********************
  
  Flooding refers to all water that overflows a node, whether it ponds or not.
  --------------------------------------------------------------------------
                                                             Total   Maximum
                                 Maximum   Time of Max       Flood    Ponded
                        Hours       Rate    Occurrence      Volume     Depth
  Node                 Flooded       CMS   days hr:min    10^6 ltr    Meters
  --------------------------------------------------------------------------
  J1                      1.32     0.949      0  01:45       1.496     8.450
  
  
  ***********************
  Outfall Loading Summary
  ***********************
  
  -----------------------------------------------------------
                         Flow       Avg       Max       Total
                         Freq      Flow      Flow      Volume
  Outfall Node           Pcnt       CMS       CMS    10^6 ltr
  -----------------------------------------------------------
  O7                    98.48     2.866     5.941      50.790
  -----------------------------------------------------------
  System                98.48     2.866     5.941      50.790
  
  
  ********************
  Link Flow Summary
  ********************
  
  -----------------------------------------------------------------------------
                                 Maximum  Time of Max   Maximum    Max/    Max/
                                  |Flow|   Occurrence   |Veloc|    Full    Full
  Link                 Type          CMS  days hr:min     m/sec    Flow   Depth
  -----------------------------------------------------------------------------
  C0                   CONDUIT     6.281     0  01:58      4.29    0.97    1.00
  C1                   CONDUIT     5.941     0  02:09      3.86    1.02    1.00
  C2                   CONDUIT     5.941     0  02:09      3.86    1.18    1.00
  C3                   CONDUIT     5.941     0  02:09      3.86    2.28    1.00
  C4                   CONDUIT     5.941     0  02:09      3.86    1.37    1.00
  C5                   CONDUIT     5.941     0  02:09      3.86    2.77    1.00
  C6                   CONDUIT     5.941     0  02:09      3.94    2.06    0.95
  
  
  ***************************
  Flow Classification Summary
  ***************************
  
  -------------------------------------------------------------------------------------
                      Adjusted    ---------- Fraction of Time in Flow Class ---------- 
                       /Actual         Up    Down  Sub   Sup   Up    Down  Norm  Inlet 
  Conduit               Length    Dry  Dry   Dry   Crit  Crit  Crit  Crit  Ltd   Ctrl  
  -------------------------------------------------------------------------------------
  C0                      1.00   0.00  0.00  0.00  0.25  0.75  0.00  0.00  0.78  0.00
  C1                      1.00   0.00  0.00  0.00  0.31  0.69  0.00  0.00  0.69  0.00
  C2                      1.00   0.00  0.00  0.00  0.98  0.02  0.00  0.00  0.66  0.00
  C3                      1.00   0.00  0.00  0.00  0.99  0.01  0.00  0.00  0.00  0.00
  C4                      1.00   0.00  0.00  0.00  0.98  0.01  0.00  0.00  0.63  0.00
  C5                      1.00   0.00  0.00  0.00  0.99  0.01  0.00  0.00  0.00  0.00
  C6                      1.00   0.01  0.00  0.00  0.99  0.00  0.00  0.00  0.00  0.00
  
  
  *************************
  Conduit Surcharge Summary
  *************************
  
  ----------------------------------------------------------------------------
                                                           Hours        Hours 
                         --------- Hours Full --------   Above Full   Capacity
  Conduit                Both Ends  Upstream  Dnstream   Normal Flow   Limited
  ----------------------------------------------------------------------------
  C0                          0.77      0.77      1.36      0.01         0.01
  C1                          1.36      1.36      1.52      0.22         0.22
  C2                          1.52      1.52      1.71      0.78         0.78
  C3                          1.58      1.71      1.58      1.89         1.58
  C4                          1.58      1.58      1.80      1.16         1.16
  C5                          1.57      1.80      1.57      2.31         1.57
  C6                          0.01      1.57      0.01      1.80         0.01
  

  Analysis begun on:  Fri Jun 12 23:45:13 2020
  Analysis ended on:  Fri Jun 12 23:45:13 2020
  Total elapsed time: < 1 sec